-- MIF generated from angle computation
WIDTH=10;
DEPTH=110;

ADDRESS_RADIX=HEX;
DATA_RADIX=HEX;

CONTENT BEGIN
    00 : 01D;
    01 : 01C;
    02 : 01C;
    03 : 024;
    04 : 024;
    05 : 024;
    06 : 024;
    07 : 024;
    08 : 024;
    09 : 025;
    0A : 025;
    0B : 025;
    0C : 01C;
    0D : 01D;
    0E : 01D;
    0F : 01D;
    10 : 026;
    11 : 026;
    12 : 026;
    13 : 026;
    14 : 026;
    15 : 026;
    16 : 026;
    17 : 026;
    18 : 026;
    19 : 026;
    1A : 026;
    1B : 01E;
    1C : 01E;
    1D : 01E;
    1E : 01E;
    1F : 01E;
    20 : 01F;
    21 : 01E;
    22 : 026;
    23 : 025;
    24 : 025;
    25 : 025;
    26 : 025;
    27 : 026;
    28 : 026;
    29 : 020;
    2A : 020;
    2B : 021;
    2C : 021;
    2D : 021;
    2E : 020;
    2F : 020;
    30 : 027;
    31 : 027;
    32 : 027;
    33 : 027;
    34 : 027;
    35 : 023;
    36 : 026;
    37 : 026;
    38 : 027;
    39 : 027;
    3A : 028;
    3B : 028;
    3C : 028;
    3D : 027;
    3E : 026;
    3F : 024;
    40 : 025;
    41 : 025;
    42 : 025;
    43 : 025;
    44 : 025;
    45 : 025;
    46 : 025;
    47 : 025;
    48 : 025;
    49 : 025;
    4A : 025;
    4B : 024;
    4C : 024;
    4D : 029;
    4E : 02B;
    4F : 02B;
    50 : 02B;
    51 : 02B;
    52 : 02B;
    53 : 02B;
    54 : 038;
    55 : 039;
    56 : 039;
    57 : 03A;
    58 : 027;
    59 : 027;
    5A : 026;
    5B : 026;
    5C : 026;
    5D : 026;
    5E : 026;
    5F : 026;
    60 : 026;
    61 : 026;
    62 : 025;
    63 : 026;
    64 : 026;
    65 : 022;
    66 : 02A;
    67 : 022;
    68 : 02D;
    69 : 02D;
    6A : 02D;
    6B : 02D;
    6C : 02C;
    6D : 02A;
END;
