-- MIF generated from angle computation
WIDTH=10;
DEPTH=110;

ADDRESS_RADIX=HEX;
DATA_RADIX=HEX;

CONTENT BEGIN
    00 : 015;
    01 : 015;
    02 : 015;
    03 : 01B;
    04 : 01A;
    05 : 01A;
    06 : 01A;
    07 : 01A;
    08 : 01A;
    09 : 01B;
    0A : 01C;
    0B : 01C;
    0C : 016;
    0D : 016;
    0E : 016;
    0F : 017;
    10 : 01D;
    11 : 01E;
    12 : 01E;
    13 : 01E;
    14 : 01D;
    15 : 01D;
    16 : 01D;
    17 : 01D;
    18 : 01E;
    19 : 01E;
    1A : 01E;
    1B : 017;
    1C : 016;
    1D : 016;
    1E : 016;
    1F : 016;
    20 : 016;
    21 : 017;
    22 : 01E;
    23 : 01E;
    24 : 01E;
    25 : 01E;
    26 : 01E;
    27 : 01E;
    28 : 01F;
    29 : 017;
    2A : 016;
    2B : 016;
    2C : 016;
    2D : 017;
    2E : 018;
    2F : 018;
    30 : 01F;
    31 : 01F;
    32 : 01F;
    33 : 020;
    34 : 021;
    35 : 019;
    36 : 01A;
    37 : 01A;
    38 : 01A;
    39 : 020;
    3A : 01B;
    3B : 01B;
    3C : 01D;
    3D : 01E;
    3E : 026;
    3F : 020;
    40 : 021;
    41 : 020;
    42 : 020;
    43 : 020;
    44 : 020;
    45 : 020;
    46 : 020;
    47 : 020;
    48 : 020;
    49 : 020;
    4A : 020;
    4B : 024;
    4C : 027;
    4D : 020;
    4E : 01D;
    4F : 01D;
    50 : 01D;
    51 : 01D;
    52 : 01D;
    53 : 01D;
    54 : 026;
    55 : 027;
    56 : 02D;
    57 : 029;
    58 : 025;
    59 : 021;
    5A : 01D;
    5B : 01D;
    5C : 01D;
    5D : 01C;
    5E : 01C;
    5F : 01B;
    60 : 01B;
    61 : 01C;
    62 : 01D;
    63 : 020;
    64 : 023;
    65 : 01D;
    66 : 019;
    67 : 01F;
    68 : 016;
    69 : 016;
    6A : 016;
    6B : 016;
    6C : 016;
    6D : 017;
END;
