-- MIF generated from angle computation
WIDTH=10;
DEPTH=110;

ADDRESS_RADIX=HEX;
DATA_RADIX=HEX;

CONTENT BEGIN
    00 : 025;
    01 : 025;
    02 : 025;
    03 : 015;
    04 : 015;
    05 : 015;
    06 : 015;
    07 : 015;
    08 : 016;
    09 : 016;
    0A : 017;
    0B : 017;
    0C : 025;
    0D : 025;
    0E : 025;
    0F : 025;
    10 : 017;
    11 : 018;
    12 : 018;
    13 : 018;
    14 : 018;
    15 : 017;
    16 : 017;
    17 : 018;
    18 : 018;
    19 : 018;
    1A : 017;
    1B : 026;
    1C : 026;
    1D : 026;
    1E : 025;
    1F : 026;
    20 : 026;
    21 : 026;
    22 : 017;
    23 : 017;
    24 : 017;
    25 : 017;
    26 : 017;
    27 : 017;
    28 : 018;
    29 : 026;
    2A : 026;
    2B : 026;
    2C : 026;
    2D : 026;
    2E : 026;
    2F : 027;
    30 : 019;
    31 : 018;
    32 : 018;
    33 : 018;
    34 : 018;
    35 : 027;
    36 : 027;
    37 : 027;
    38 : 027;
    39 : 021;
    3A : 027;
    3B : 027;
    3C : 026;
    3D : 026;
    3E : 020;
    3F : 026;
    40 : 023;
    41 : 024;
    42 : 024;
    43 : 024;
    44 : 024;
    45 : 024;
    46 : 024;
    47 : 024;
    48 : 024;
    49 : 024;
    4A : 024;
    4B : 023;
    4C : 022;
    4D : 025;
    4E : 025;
    4F : 025;
    50 : 025;
    51 : 025;
    52 : 025;
    53 : 025;
    54 : 02E;
    55 : 02E;
    56 : 027;
    57 : 027;
    58 : 01D;
    59 : 01F;
    5A : 021;
    5B : 021;
    5C : 021;
    5D : 021;
    5E : 021;
    5F : 020;
    60 : 01E;
    61 : 01E;
    62 : 01D;
    63 : 01D;
    64 : 01C;
    65 : 026;
    66 : 026;
    67 : 026;
    68 : 026;
    69 : 026;
    6A : 025;
    6B : 026;
    6C : 026;
    6D : 026;
END;
