-- MIF generated from angle computation
WIDTH=10;
DEPTH=137;

ADDRESS_RADIX=HEX;
DATA_RADIX=HEX;

CONTENT BEGIN
    00 : 025;
    01 : 015;
    02 : 016;
    03 : 025;
    04 : 018;
    05 : 017;
    06 : 026;
    07 : 026;
    08 : 017;
    09 : 018;
    0A : 026;
    0B : 018;
    0C : 027;
    0D : 021;
    0E : 020;
    0F : 020;
    10 : 020;
    11 : 023;
    12 : 023;
    13 : 02E;
    14 : 01D;
    15 : 021;
    16 : 01E;
    17 : 026;
    18 : 025;
    19 : 026;
    1A : 026;
    1B : 01D;
    1C : 01F;
    1D : 01C;
    1E : 026;
    1F : 026;
    20 : 026;
    21 : 026;
    22 : 01F;
    23 : 01F;
    24 : 01D;
    25 : 026;
    26 : 027;
    27 : 026;
    28 : 028;
    29 : 027;
    2A : 023;
    2B : 022;
    2C : 022;
    2D : 024;
    2E : 024;
    2F : 027;
    30 : 020;
    31 : 01E;
    32 : 01C;
    33 : 026;
    34 : 027;
    35 : 027;
    36 : 01C;
    37 : 020;
    38 : 01F;
    39 : 027;
    3A : 026;
    3B : 028;
    3C : 027;
    3D : 01F;
    3E : 021;
    3F : 01F;
    40 : 01E;
    41 : 027;
    42 : 028;
    43 : 028;
    44 : 029;
    45 : 021;
    46 : 023;
    47 : 023;
    48 : 022;
    49 : 022;
    4A : 028;
    4B : 01D;
    4C : 021;
    4D : 01E;
    4E : 027;
    4F : 027;
    50 : 027;
    51 : 028;
    52 : 01F;
    53 : 021;
    54 : 01D;
    55 : 027;
    56 : 028;
    57 : 027;
    58 : 01B;
    59 : 01F;
    5A : 01F;
    5B : 01D;
    5C : 027;
    5D : 028;
    5E : 028;
    5F : 01C;
    60 : 020;
    61 : 01C;
    62 : 01F;
    63 : 027;
    64 : 027;
    65 : 027;
    66 : 029;
    67 : 029;
    68 : 028;
    69 : 028;
    6A : 026;
    6B : 028;
    6C : 025;
    6D : 024;
    6E : 024;
    6F : 024;
    70 : 027;
    71 : 022;
    72 : 01F;
    73 : 01E;
    74 : 01E;
    75 : 01E;
    76 : 01E;
    77 : 01E;
    78 : 01E;
    79 : 01E;
    7A : 01E;
    7B : 01E;
    7C : 01D;
    7D : 029;
    7E : 01E;
    7F : 01E;
    80 : 027;
    81 : 027;
    82 : 027;
    83 : 01C;
    84 : 027;
    85 : 01E;
    86 : 01D;
    87 : 01E;
    88 : 01E;
END;
