-- MIF generated from angle computation
WIDTH=10;
DEPTH=137;

ADDRESS_RADIX=HEX;
DATA_RADIX=HEX;

CONTENT BEGIN
    00 : 015;
    01 : 01A;
    02 : 01B;
    03 : 016;
    04 : 01E;
    05 : 01D;
    06 : 017;
    07 : 016;
    08 : 01E;
    09 : 01F;
    0A : 016;
    0B : 01F;
    0C : 019;
    0D : 020;
    0E : 026;
    0F : 026;
    10 : 026;
    11 : 024;
    12 : 024;
    13 : 026;
    14 : 025;
    15 : 01C;
    16 : 01C;
    17 : 019;
    18 : 016;
    19 : 018;
    1A : 018;
    1B : 01C;
    1C : 01C;
    1D : 01B;
    1E : 016;
    1F : 017;
    20 : 017;
    21 : 019;
    22 : 01B;
    23 : 01B;
    24 : 01F;
    25 : 017;
    26 : 018;
    27 : 017;
    28 : 01A;
    29 : 01D;
    2A : 01D;
    2B : 01E;
    2C : 01F;
    2D : 01D;
    2E : 01D;
    2F : 019;
    30 : 024;
    31 : 01B;
    32 : 023;
    33 : 017;
    34 : 018;
    35 : 017;
    36 : 01F;
    37 : 01D;
    38 : 01C;
    39 : 01A;
    3A : 016;
    3B : 018;
    3C : 018;
    3D : 01D;
    3E : 01C;
    3F : 01C;
    40 : 024;
    41 : 01A;
    42 : 018;
    43 : 019;
    44 : 01A;
    45 : 023;
    46 : 01F;
    47 : 020;
    48 : 028;
    49 : 028;
    4A : 018;
    4B : 025;
    4C : 01D;
    4D : 01E;
    4E : 018;
    4F : 018;
    50 : 017;
    51 : 019;
    52 : 01D;
    53 : 01E;
    54 : 020;
    55 : 018;
    56 : 018;
    57 : 017;
    58 : 020;
    59 : 01E;
    5A : 01B;
    5B : 020;
    5C : 017;
    5D : 018;
    5E : 018;
    5F : 01E;
    60 : 01E;
    61 : 01D;
    62 : 023;
    63 : 021;
    64 : 021;
    65 : 021;
    66 : 021;
    67 : 021;
    68 : 021;
    69 : 023;
    6A : 026;
    6B : 027;
    6C : 028;
    6D : 028;
    6E : 029;
    6F : 029;
    70 : 028;
    71 : 024;
    72 : 022;
    73 : 021;
    74 : 023;
    75 : 022;
    76 : 021;
    77 : 021;
    78 : 021;
    79 : 020;
    7A : 020;
    7B : 020;
    7C : 021;
    7D : 01D;
    7E : 022;
    7F : 023;
    80 : 01B;
    81 : 01B;
    82 : 01C;
    83 : 020;
    84 : 01D;
    85 : 021;
    86 : 021;
    87 : 021;
    88 : 021;
END;
