-- MIF generated from angle computation
WIDTH=10;
DEPTH=137;

ADDRESS_RADIX=HEX;
DATA_RADIX=HEX;

CONTENT BEGIN
    00 : 01D;
    01 : 024;
    02 : 025;
    03 : 01D;
    04 : 026;
    05 : 026;
    06 : 01E;
    07 : 01E;
    08 : 025;
    09 : 026;
    0A : 021;
    0B : 027;
    0C : 023;
    0D : 027;
    0E : 026;
    0F : 026;
    10 : 026;
    11 : 024;
    12 : 024;
    13 : 038;
    14 : 027;
    15 : 026;
    16 : 026;
    17 : 02A;
    18 : 02D;
    19 : 028;
    1A : 023;
    1B : 026;
    1C : 026;
    1D : 025;
    1E : 028;
    1F : 02A;
    20 : 025;
    21 : 022;
    22 : 026;
    23 : 026;
    24 : 026;
    25 : 02B;
    26 : 02A;
    27 : 023;
    28 : 028;
    29 : 028;
    2A : 024;
    2B : 023;
    2C : 023;
    2D : 029;
    2E : 029;
    2F : 02D;
    30 : 027;
    31 : 026;
    32 : 027;
    33 : 02D;
    34 : 02B;
    35 : 024;
    36 : 027;
    37 : 027;
    38 : 027;
    39 : 024;
    3A : 02D;
    3B : 027;
    3C : 024;
    3D : 028;
    3E : 028;
    3F : 028;
    40 : 028;
    41 : 02A;
    42 : 027;
    43 : 027;
    44 : 02A;
    45 : 027;
    46 : 024;
    47 : 025;
    48 : 026;
    49 : 026;
    4A : 02F;
    4B : 028;
    4C : 028;
    4D : 027;
    4E : 02A;
    4F : 02D;
    50 : 025;
    51 : 022;
    52 : 027;
    53 : 028;
    54 : 027;
    55 : 02D;
    56 : 02C;
    57 : 025;
    58 : 028;
    59 : 028;
    5A : 027;
    5B : 028;
    5C : 02C;
    5D : 02A;
    5E : 025;
    5F : 028;
    60 : 028;
    61 : 028;
    62 : 027;
    63 : 02A;
    64 : 02A;
    65 : 02A;
    66 : 030;
    67 : 030;
    68 : 030;
    69 : 02B;
    6A : 029;
    6B : 028;
    6C : 025;
    6D : 025;
    6E : 026;
    6F : 026;
    70 : 027;
    71 : 027;
    72 : 027;
    73 : 028;
    74 : 028;
    75 : 028;
    76 : 029;
    77 : 029;
    78 : 028;
    79 : 02A;
    7A : 02A;
    7B : 029;
    7C : 026;
    7D : 021;
    7E : 029;
    7F : 029;
    80 : 021;
    81 : 020;
    82 : 01F;
    83 : 027;
    84 : 020;
    85 : 028;
    86 : 027;
    87 : 027;
    88 : 027;
END;
